/*---------------------------------------------------------------------------*\
  =========                 |
  \\      /  F ield         | OpenFOAM: The Open Source CFD Toolbox
   \\    /   O peration     | Website:  https://openfoam.org
    \\  /    A nd           | Version:  12
     \\/     M anipulation  |
\*---------------------------------------------------------------------------*/
/*   Windows 32 and 64 bit porting by blueCAPE: http://www.bluecape.com.pt   *\
|  Based on Windows porting (2.0.x v4) by Symscape: http://www.symscape.com   |
\*---------------------------------------------------------------------------*/
Build  : 12-8e8552546d20
Exec   : C:/BLUECF~1/2024/OpenFOAM-12/platforms/mingw_w64Gcc122DPInt32Opt/bin/createPatch.exe -overwrite
Date   : Oct 07 2025
Time   : 22:33:05
Host   : "DESKTOP-71MJVT3"
PID    : 38596
I/O    : uncollated
Case   : C:/blueCFD-Core/2024/ofuser-of12/run/kado
nProcs : 1
SigFpe : Enabling floating point exception trapping (FOAM_SIGFPE).
fileModificationChecking : Monitoring run-time modified files using timeStampMaster (fileModificationSkew 10)
allowSystemOperations : Allowing user-supplied system call operations

// * * * * * * * * * * * * * * * * * * * * * * * * * * * * * * * * * * * * * //
Create time

Create polyMesh for time = 0

Reading "createPatchDict"

Adding new patch outlet as patch 2 from 
{
    type            patch;
}

Adding new patch inlet as patch 3 from 
{
    type            patch;
}


Read 16 faces from faceSet outletFaceSet
Read 200 faces from faceSet inletFaceSet

Doing topology modification to order faces.

Removing patches with no faces in them.

No patches removed.
Writing repatched mesh to 0

End

